Circuit: * C:\users\salieri\Code\ifmo\sem6\cdesign\test\nand_test.asc

WARNING: Node X1:N001 is floating.
WARNING: Node X1:N002 is floating.
WARNING: Node X1:N003 is floating.
WARNING: Node X1:N005 is floating.

WARNING: Less than two connections to node x1:n001.  This node is used by m:x1:1.
WARNING: Less than two connections to node x1:n002.  This node is used by m:x1:2.
WARNING: Less than two connections to node x1:n003.  This node is used by m:x1:3.
WARNING: Less than two connections to node x1:n005.  This node is used by m:x1:4.
Warning: toxe, toxp and dtox all given and toxe != toxp + dtox; dtox ignored.
Warning: toxe, toxp and dtox all given and toxe != toxp + dtox; dtox ignored.
Direct Newton iteration for .op point succeeded.

Date: Sun Feb 18 16:47:00 2024
Total elapsed time: 0.691 seconds.

tnom = 27
temp = 27
method = modified trap
totiter = 48681
traniter = 48649
tranpoints = 24252
accept = 24224
rejected = 28
matrix size = 28
fillins = 18
solver = Normal
Avg thread counts: 1.0/1.0/1.0/1.0
Matrix Compiler1: 3.99 KB object code size  1.3/0.5/[0.3]
Matrix Compiler2: off  [0.4]/0.4/0.4

