Circuit: * C:\users\salieri\Code\ifmo\sem6\cdesign\test\test.asc

Warning: toxe, toxp and dtox all given and toxe != toxp + dtox; dtox ignored.
Warning: toxe, toxp and dtox all given and toxe != toxp + dtox; dtox ignored.
Direct Newton iteration for .op point succeeded.

Date: Sun Feb 11 13:15:16 2024
Total elapsed time: 0.213 seconds.

tnom = 27
temp = 27
method = modified trap
totiter = 16188
traniter = 16183
tranpoints = 8080
accept = 8071
rejected = 9
matrix size = 13
fillins = 0
solver = Normal
Avg thread counts: 1.0/1.1/1.1/1.0
Matrix Compiler1: 978 bytes object code size  0.5/0.2/[0.2]
Matrix Compiler2: 1.32 KB object code size  0.2/0.2/[0.1]

