Circuit: * C:\users\salieri\Code\ifmo\sem6\cdesign\lab1\4bit_adder_test.asc

WARNING: Node X1:X1:X1:N001 is floating.
WARNING: Node X1:X1:X1:N003 is floating.
WARNING: Node X1:X1:X1:N004 is floating.
WARNING: Node X1:X1:X2:N001 is floating.
WARNING: Node X1:X1:X2:N003 is floating.
WARNING: Node X1:X1:X2:N004 is floating.
WARNING: Node X1:X1:X3:N001 is floating.
WARNING: Node X1:X1:X3:N003 is floating.
WARNING: Node X1:X1:X3:N004 is floating.
WARNING: Node X1:X1:X4:N001 is floating.
WARNING: Node X1:X1:X4:N003 is floating.
WARNING: Node X1:X1:X4:N004 is floating.
WARNING: Node X1:X1:X5:N001 is floating.
WARNING: Node X1:X1:X5:N003 is floating.
WARNING: Node X1:X1:X5:N004 is floating.
WARNING: Node X1:X1:X6:N001 is floating.
WARNING: Node X1:X1:X6:N003 is floating.
WARNING: Node X1:X1:X6:N004 is floating.
WARNING: Node X1:X1:X7:N001 is floating.
WARNING: Node X1:X1:X7:N003 is floating.
WARNING: Node X1:X1:X7:N004 is floating.
WARNING: Node X1:X1:X8:N001 is floating.
WARNING: Node X1:X1:X8:N003 is floating.
WARNING: Node X1:X1:X8:N004 is floating.
WARNING: Node X1:X1:X9:N001 is floating.
WARNING: Node X1:X1:X9:N003 is floating.
WARNING: Node X1:X1:X9:N004 is floating.
WARNING: Node X1:X2:X1:N001 is floating.
WARNING: Node X1:X2:X1:N003 is floating.
WARNING: Node X1:X2:X1:N004 is floating.
WARNING: Node X1:X2:X2:N001 is floating.
WARNING: Node X1:X2:X2:N003 is floating.
WARNING: Node X1:X2:X2:N004 is floating.
WARNING: Node X1:X2:X3:N001 is floating.
WARNING: Node X1:X2:X3:N003 is floating.
WARNING: Node X1:X2:X3:N004 is floating.
WARNING: Node X1:X2:X4:N001 is floating.
WARNING: Node X1:X2:X4:N003 is floating.
WARNING: Node X1:X2:X4:N004 is floating.
WARNING: Node X1:X2:X5:N001 is floating.
WARNING: Node X1:X2:X5:N003 is floating.
WARNING: Node X1:X2:X5:N004 is floating.
WARNING: Node X1:X2:X6:N001 is floating.
WARNING: Node X1:X2:X6:N003 is floating.
WARNING: Node X1:X2:X6:N004 is floating.
WARNING: Node X1:X2:X7:N001 is floating.
WARNING: Node X1:X2:X7:N003 is floating.
WARNING: Node X1:X2:X7:N004 is floating.
WARNING: Node X1:X2:X8:N001 is floating.
WARNING: Node X1:X2:X8:N003 is floating.
WARNING: Node X1:X2:X8:N004 is floating.
WARNING: Node X1:X2:X9:N001 is floating.
WARNING: Node X1:X2:X9:N003 is floating.
WARNING: Node X1:X2:X9:N004 is floating.
WARNING: Node X1:X3:X1:N001 is floating.
WARNING: Node X1:X3:X1:N003 is floating.
WARNING: Node X1:X3:X1:N004 is floating.
WARNING: Node X1:X3:X2:N001 is floating.
WARNING: Node X1:X3:X2:N003 is floating.
WARNING: Node X1:X3:X2:N004 is floating.
WARNING: Node X1:X3:X3:N001 is floating.
WARNING: Node X1:X3:X3:N003 is floating.
WARNING: Node X1:X3:X3:N004 is floating.
WARNING: Node X1:X3:X4:N001 is floating.
WARNING: Node X1:X3:X4:N003 is floating.
WARNING: Node X1:X3:X4:N004 is floating.
WARNING: Node X1:X3:X5:N001 is floating.
WARNING: Node X1:X3:X5:N003 is floating.
WARNING: Node X1:X3:X5:N004 is floating.
WARNING: Node X1:X3:X6:N001 is floating.
WARNING: Node X1:X3:X6:N003 is floating.
WARNING: Node X1:X3:X6:N004 is floating.
WARNING: Node X1:X3:X7:N001 is floating.
WARNING: Node X1:X3:X7:N003 is floating.
WARNING: Node X1:X3:X7:N004 is floating.
WARNING: Node X1:X3:X8:N001 is floating.
WARNING: Node X1:X3:X8:N003 is floating.
WARNING: Node X1:X3:X8:N004 is floating.
WARNING: Node X1:X3:X9:N001 is floating.
WARNING: Node X1:X3:X9:N003 is floating.
WARNING: Node X1:X3:X9:N004 is floating.
WARNING: Node X1:X4:X1:N001 is floating.
WARNING: Node X1:X4:X1:N003 is floating.
WARNING: Node X1:X4:X1:N004 is floating.
WARNING: Node X1:X4:X2:N001 is floating.
WARNING: Node X1:X4:X2:N003 is floating.
WARNING: Node X1:X4:X2:N004 is floating.
WARNING: Node X1:X4:X3:N001 is floating.
WARNING: Node X1:X4:X3:N003 is floating.
WARNING: Node X1:X4:X3:N004 is floating.
WARNING: Node X1:X4:X4:N001 is floating.
WARNING: Node X1:X4:X4:N003 is floating.
WARNING: Node X1:X4:X4:N004 is floating.
WARNING: Node X1:X4:X5:N001 is floating.
WARNING: Node X1:X4:X5:N003 is floating.
WARNING: Node X1:X4:X5:N004 is floating.
WARNING: Node X1:X4:X6:N001 is floating.
WARNING: Node X1:X4:X6:N003 is floating.
WARNING: Node X1:X4:X6:N004 is floating.
WARNING: Node X1:X4:X7:N001 is floating.
WARNING: Node X1:X4:X7:N003 is floating.
WARNING: Node X1:X4:X7:N004 is floating.
WARNING: Node X1:X4:X8:N001 is floating.
WARNING: Node X1:X4:X8:N003 is floating.
WARNING: Node X1:X4:X8:N004 is floating.
WARNING: Node X1:X4:X9:N001 is floating.
WARNING: Node X1:X4:X9:N003 is floating.
WARNING: Node X1:X4:X9:N004 is floating.

WARNING: Less than two connections to node x1:x1:x1:n001.  This node is used by m:x1:x1:x1:1.
WARNING: Less than two connections to node x1:x1:x1:n003.  This node is used by m:x1:x1:x1:3.
WARNING: Less than two connections to node x1:x1:x1:n004.  This node is used by m:x1:x1:x1:4.
WARNING: Less than two connections to node x1:x1:x2:n001.  This node is used by m:x1:x1:x2:1.
WARNING: Less than two connections to node x1:x1:x2:n003.  This node is used by m:x1:x1:x2:3.
WARNING: Less than two connections to node x1:x1:x2:n004.  This node is used by m:x1:x1:x2:4.
WARNING: Less than two connections to node x1:x1:x3:n001.  This node is used by m:x1:x1:x3:1.
WARNING: Less than two connections to node x1:x1:x3:n003.  This node is used by m:x1:x1:x3:3.
WARNING: Less than two connections to node x1:x1:x3:n004.  This node is used by m:x1:x1:x3:4.
WARNING: Less than two connections to node x1:x1:x4:n001.  This node is used by m:x1:x1:x4:1.
WARNING: Less than two connections to node x1:x1:x4:n003.  This node is used by m:x1:x1:x4:3.
WARNING: Less than two connections to node x1:x1:x4:n004.  This node is used by m:x1:x1:x4:4.
WARNING: Less than two connections to node x1:x1:x5:n001.  This node is used by m:x1:x1:x5:1.
WARNING: Less than two connections to node x1:x1:x5:n003.  This node is used by m:x1:x1:x5:3.
WARNING: Less than two connections to node x1:x1:x5:n004.  This node is used by m:x1:x1:x5:4.
WARNING: Less than two connections to node x1:x1:x6:n001.  This node is used by m:x1:x1:x6:1.
WARNING: Less than two connections to node x1:x1:x6:n003.  This node is used by m:x1:x1:x6:3.
WARNING: Less than two connections to node x1:x1:x6:n004.  This node is used by m:x1:x1:x6:4.
WARNING: Less than two connections to node x1:x1:x7:n001.  This node is used by m:x1:x1:x7:1.
WARNING: Less than two connections to node x1:x1:x7:n003.  This node is used by m:x1:x1:x7:3.
WARNING: Less than two connections to node x1:x1:x7:n004.  This node is used by m:x1:x1:x7:4.
WARNING: Less than two connections to node x1:x1:x8:n001.  This node is used by m:x1:x1:x8:1.
WARNING: Less than two connections to node x1:x1:x8:n003.  This node is used by m:x1:x1:x8:3.
WARNING: Less than two connections to node x1:x1:x8:n004.  This node is used by m:x1:x1:x8:4.
WARNING: Less than two connections to node x1:x1:x9:n001.  This node is used by m:x1:x1:x9:1.
WARNING: Less than two connections to node x1:x1:x9:n003.  This node is used by m:x1:x1:x9:3.
WARNING: Less than two connections to node x1:x1:x9:n004.  This node is used by m:x1:x1:x9:4.
WARNING: Less than two connections to node x1:x2:x1:n001.  This node is used by m:x1:x2:x1:1.
WARNING: Less than two connections to node x1:x2:x1:n003.  This node is used by m:x1:x2:x1:3.
WARNING: Less than two connections to node x1:x2:x1:n004.  This node is used by m:x1:x2:x1:4.
WARNING: Less than two connections to node x1:x2:x2:n001.  This node is used by m:x1:x2:x2:1.
WARNING: Less than two connections to node x1:x2:x2:n003.  This node is used by m:x1:x2:x2:3.
WARNING: Less than two connections to node x1:x2:x2:n004.  This node is used by m:x1:x2:x2:4.
WARNING: Less than two connections to node x1:x2:x3:n001.  This node is used by m:x1:x2:x3:1.
WARNING: Less than two connections to node x1:x2:x3:n003.  This node is used by m:x1:x2:x3:3.
WARNING: Less than two connections to node x1:x2:x3:n004.  This node is used by m:x1:x2:x3:4.
WARNING: Less than two connections to node x1:x2:x4:n001.  This node is used by m:x1:x2:x4:1.
WARNING: Less than two connections to node x1:x2:x4:n003.  This node is used by m:x1:x2:x4:3.
WARNING: Less than two connections to node x1:x2:x4:n004.  This node is used by m:x1:x2:x4:4.
WARNING: Less than two connections to node x1:x2:x5:n001.  This node is used by m:x1:x2:x5:1.
WARNING: Less than two connections to node x1:x2:x5:n003.  This node is used by m:x1:x2:x5:3.
WARNING: Less than two connections to node x1:x2:x5:n004.  This node is used by m:x1:x2:x5:4.
WARNING: Less than two connections to node x1:x2:x6:n001.  This node is used by m:x1:x2:x6:1.
WARNING: Less than two connections to node x1:x2:x6:n003.  This node is used by m:x1:x2:x6:3.
WARNING: Less than two connections to node x1:x2:x6:n004.  This node is used by m:x1:x2:x6:4.
WARNING: Less than two connections to node x1:x2:x7:n001.  This node is used by m:x1:x2:x7:1.
WARNING: Less than two connections to node x1:x2:x7:n003.  This node is used by m:x1:x2:x7:3.
WARNING: Less than two connections to node x1:x2:x7:n004.  This node is used by m:x1:x2:x7:4.
WARNING: Less than two connections to node x1:x2:x8:n001.  This node is used by m:x1:x2:x8:1.
WARNING: Less than two connections to node x1:x2:x8:n003.  This node is used by m:x1:x2:x8:3.
WARNING: Less than two connections to node x1:x2:x8:n004.  This node is used by m:x1:x2:x8:4.
WARNING: Less than two connections to node x1:x2:x9:n001.  This node is used by m:x1:x2:x9:1.
WARNING: Less than two connections to node x1:x2:x9:n003.  This node is used by m:x1:x2:x9:3.
WARNING: Less than two connections to node x1:x2:x9:n004.  This node is used by m:x1:x2:x9:4.
WARNING: Less than two connections to node x1:x3:x1:n001.  This node is used by m:x1:x3:x1:1.
WARNING: Less than two connections to node x1:x3:x1:n003.  This node is used by m:x1:x3:x1:3.
WARNING: Less than two connections to node x1:x3:x1:n004.  This node is used by m:x1:x3:x1:4.
WARNING: Less than two connections to node x1:x3:x2:n001.  This node is used by m:x1:x3:x2:1.
WARNING: Less than two connections to node x1:x3:x2:n003.  This node is used by m:x1:x3:x2:3.
WARNING: Less than two connections to node x1:x3:x2:n004.  This node is used by m:x1:x3:x2:4.
WARNING: Less than two connections to node x1:x3:x3:n001.  This node is used by m:x1:x3:x3:1.
WARNING: Less than two connections to node x1:x3:x3:n003.  This node is used by m:x1:x3:x3:3.
WARNING: Less than two connections to node x1:x3:x3:n004.  This node is used by m:x1:x3:x3:4.
WARNING: Less than two connections to node x1:x3:x4:n001.  This node is used by m:x1:x3:x4:1.
WARNING: Less than two connections to node x1:x3:x4:n003.  This node is used by m:x1:x3:x4:3.
WARNING: Less than two connections to node x1:x3:x4:n004.  This node is used by m:x1:x3:x4:4.
WARNING: Less than two connections to node x1:x3:x5:n001.  This node is used by m:x1:x3:x5:1.
WARNING: Less than two connections to node x1:x3:x5:n003.  This node is used by m:x1:x3:x5:3.
WARNING: Less than two connections to node x1:x3:x5:n004.  This node is used by m:x1:x3:x5:4.
WARNING: Less than two connections to node x1:x3:x6:n001.  This node is used by m:x1:x3:x6:1.
WARNING: Less than two connections to node x1:x3:x6:n003.  This node is used by m:x1:x3:x6:3.
WARNING: Less than two connections to node x1:x3:x6:n004.  This node is used by m:x1:x3:x6:4.
WARNING: Less than two connections to node x1:x3:x7:n001.  This node is used by m:x1:x3:x7:1.
WARNING: Less than two connections to node x1:x3:x7:n003.  This node is used by m:x1:x3:x7:3.
WARNING: Less than two connections to node x1:x3:x7:n004.  This node is used by m:x1:x3:x7:4.
WARNING: Less than two connections to node x1:x3:x8:n001.  This node is used by m:x1:x3:x8:1.
WARNING: Less than two connections to node x1:x3:x8:n003.  This node is used by m:x1:x3:x8:3.
WARNING: Less than two connections to node x1:x3:x8:n004.  This node is used by m:x1:x3:x8:4.
WARNING: Less than two connections to node x1:x3:x9:n001.  This node is used by m:x1:x3:x9:1.
WARNING: Less than two connections to node x1:x3:x9:n003.  This node is used by m:x1:x3:x9:3.
WARNING: Less than two connections to node x1:x3:x9:n004.  This node is used by m:x1:x3:x9:4.
WARNING: Less than two connections to node x1:x4:x1:n001.  This node is used by m:x1:x4:x1:1.
WARNING: Less than two connections to node x1:x4:x1:n003.  This node is used by m:x1:x4:x1:3.
WARNING: Less than two connections to node x1:x4:x1:n004.  This node is used by m:x1:x4:x1:4.
WARNING: Less than two connections to node x1:x4:x2:n001.  This node is used by m:x1:x4:x2:1.
WARNING: Less than two connections to node x1:x4:x2:n003.  This node is used by m:x1:x4:x2:3.
WARNING: Less than two connections to node x1:x4:x2:n004.  This node is used by m:x1:x4:x2:4.
WARNING: Less than two connections to node x1:x4:x3:n001.  This node is used by m:x1:x4:x3:1.
WARNING: Less than two connections to node x1:x4:x3:n003.  This node is used by m:x1:x4:x3:3.
WARNING: Less than two connections to node x1:x4:x3:n004.  This node is used by m:x1:x4:x3:4.
WARNING: Less than two connections to node x1:x4:x4:n001.  This node is used by m:x1:x4:x4:1.
WARNING: Less than two connections to node x1:x4:x4:n003.  This node is used by m:x1:x4:x4:3.
WARNING: Less than two connections to node x1:x4:x4:n004.  This node is used by m:x1:x4:x4:4.
WARNING: Less than two connections to node x1:x4:x5:n001.  This node is used by m:x1:x4:x5:1.
WARNING: Less than two connections to node x1:x4:x5:n003.  This node is used by m:x1:x4:x5:3.
WARNING: Less than two connections to node x1:x4:x5:n004.  This node is used by m:x1:x4:x5:4.
WARNING: Less than two connections to node x1:x4:x6:n001.  This node is used by m:x1:x4:x6:1.
WARNING: Less than two connections to node x1:x4:x6:n003.  This node is used by m:x1:x4:x6:3.
WARNING: Less than two connections to node x1:x4:x6:n004.  This node is used by m:x1:x4:x6:4.
WARNING: Less than two connections to node x1:x4:x7:n001.  This node is used by m:x1:x4:x7:1.
WARNING: Less than two connections to node x1:x4:x7:n003.  This node is used by m:x1:x4:x7:3.
WARNING: Less than two connections to node x1:x4:x7:n004.  This node is used by m:x1:x4:x7:4.
WARNING: Less than two connections to node x1:x4:x8:n001.  This node is used by m:x1:x4:x8:1.
WARNING: Less than two connections to node x1:x4:x8:n003.  This node is used by m:x1:x4:x8:3.
WARNING: Less than two connections to node x1:x4:x8:n004.  This node is used by m:x1:x4:x8:4.
WARNING: Less than two connections to node x1:x4:x9:n001.  This node is used by m:x1:x4:x9:1.
WARNING: Less than two connections to node x1:x4:x9:n003.  This node is used by m:x1:x4:x9:3.
WARNING: Less than two connections to node x1:x4:x9:n004.  This node is used by m:x1:x4:x9:4.
Warning: toxe, toxp and dtox all given and toxe != toxp + dtox; dtox ignored.
Warning: toxe, toxp and dtox all given and toxe != toxp + dtox; dtox ignored.
Warning: toxe, toxp and dtox all given and toxe != toxp + dtox; dtox ignored.
Warning: toxe, toxp and dtox all given and toxe != toxp + dtox; dtox ignored.
Warning: toxe, toxp and dtox all given and toxe != toxp + dtox; dtox ignored.
Warning: toxe, toxp and dtox all given and toxe != toxp + dtox; dtox ignored.
Warning: toxe, toxp and dtox all given and toxe != toxp + dtox; dtox ignored.
Warning: toxe, toxp and dtox all given and toxe != toxp + dtox; dtox ignored.
Warning: toxe, toxp and dtox all given and toxe != toxp + dtox; dtox ignored.
Warning: toxe, toxp and dtox all given and toxe != toxp + dtox; dtox ignored.
Warning: toxe, toxp and dtox all given and toxe != toxp + dtox; dtox ignored.
Warning: toxe, toxp and dtox all given and toxe != toxp + dtox; dtox ignored.
Warning: toxe, toxp and dtox all given and toxe != toxp + dtox; dtox ignored.
Warning: toxe, toxp and dtox all given and toxe != toxp + dtox; dtox ignored.
Warning: toxe, toxp and dtox all given and toxe != toxp + dtox; dtox ignored.
Warning: toxe, toxp and dtox all given and toxe != toxp + dtox; dtox ignored.
Warning: toxe, toxp and dtox all given and toxe != toxp + dtox; dtox ignored.
Warning: toxe, toxp and dtox all given and toxe != toxp + dtox; dtox ignored.
Warning: toxe, toxp and dtox all given and toxe != toxp + dtox; dtox ignored.
Warning: toxe, toxp and dtox all given and toxe != toxp + dtox; dtox ignored.
Warning: toxe, toxp and dtox all given and toxe != toxp + dtox; dtox ignored.
Warning: toxe, toxp and dtox all given and toxe != toxp + dtox; dtox ignored.
Warning: toxe, toxp and dtox all given and toxe != toxp + dtox; dtox ignored.
Warning: toxe, toxp and dtox all given and toxe != toxp + dtox; dtox ignored.
Warning: toxe, toxp and dtox all given and toxe != toxp + dtox; dtox ignored.
Warning: toxe, toxp and dtox all given and toxe != toxp + dtox; dtox ignored.
Warning: toxe, toxp and dtox all given and toxe != toxp + dtox; dtox ignored.
Warning: toxe, toxp and dtox all given and toxe != toxp + dtox; dtox ignored.
Warning: toxe, toxp and dtox all given and toxe != toxp + dtox; dtox ignored.
Warning: toxe, toxp and dtox all given and toxe != toxp + dtox; dtox ignored.
Warning: toxe, toxp and dtox all given and toxe != toxp + dtox; dtox ignored.
Warning: toxe, toxp and dtox all given and toxe != toxp + dtox; dtox ignored.
Warning: toxe, toxp and dtox all given and toxe != toxp + dtox; dtox ignored.
Warning: toxe, toxp and dtox all given and toxe != toxp + dtox; dtox ignored.
Warning: toxe, toxp and dtox all given and toxe != toxp + dtox; dtox ignored.
Warning: toxe, toxp and dtox all given and toxe != toxp + dtox; dtox ignored.
Warning: toxe, toxp and dtox all given and toxe != toxp + dtox; dtox ignored.
Warning: toxe, toxp and dtox all given and toxe != toxp + dtox; dtox ignored.
Warning: toxe, toxp and dtox all given and toxe != toxp + dtox; dtox ignored.
Warning: toxe, toxp and dtox all given and toxe != toxp + dtox; dtox ignored.
Warning: toxe, toxp and dtox all given and toxe != toxp + dtox; dtox ignored.
Warning: toxe, toxp and dtox all given and toxe != toxp + dtox; dtox ignored.
Warning: toxe, toxp and dtox all given and toxe != toxp + dtox; dtox ignored.
Warning: toxe, toxp and dtox all given and toxe != toxp + dtox; dtox ignored.
Warning: toxe, toxp and dtox all given and toxe != toxp + dtox; dtox ignored.
Warning: toxe, toxp and dtox all given and toxe != toxp + dtox; dtox ignored.
Warning: toxe, toxp and dtox all given and toxe != toxp + dtox; dtox ignored.
Warning: toxe, toxp and dtox all given and toxe != toxp + dtox; dtox ignored.
Warning: toxe, toxp and dtox all given and toxe != toxp + dtox; dtox ignored.
Warning: toxe, toxp and dtox all given and toxe != toxp + dtox; dtox ignored.
Warning: toxe, toxp and dtox all given and toxe != toxp + dtox; dtox ignored.
Warning: toxe, toxp and dtox all given and toxe != toxp + dtox; dtox ignored.
Warning: toxe, toxp and dtox all given and toxe != toxp + dtox; dtox ignored.
Warning: toxe, toxp and dtox all given and toxe != toxp + dtox; dtox ignored.
Warning: toxe, toxp and dtox all given and toxe != toxp + dtox; dtox ignored.
Warning: toxe, toxp and dtox all given and toxe != toxp + dtox; dtox ignored.
Warning: toxe, toxp and dtox all given and toxe != toxp + dtox; dtox ignored.
Warning: toxe, toxp and dtox all given and toxe != toxp + dtox; dtox ignored.
Warning: toxe, toxp and dtox all given and toxe != toxp + dtox; dtox ignored.
Warning: toxe, toxp and dtox all given and toxe != toxp + dtox; dtox ignored.
Warning: toxe, toxp and dtox all given and toxe != toxp + dtox; dtox ignored.
Warning: toxe, toxp and dtox all given and toxe != toxp + dtox; dtox ignored.
Warning: toxe, toxp and dtox all given and toxe != toxp + dtox; dtox ignored.
Warning: toxe, toxp and dtox all given and toxe != toxp + dtox; dtox ignored.
Warning: toxe, toxp and dtox all given and toxe != toxp + dtox; dtox ignored.
Warning: toxe, toxp and dtox all given and toxe != toxp + dtox; dtox ignored.
Warning: toxe, toxp and dtox all given and toxe != toxp + dtox; dtox ignored.
Warning: toxe, toxp and dtox all given and toxe != toxp + dtox; dtox ignored.
Warning: toxe, toxp and dtox all given and toxe != toxp + dtox; dtox ignored.
Warning: toxe, toxp and dtox all given and toxe != toxp + dtox; dtox ignored.
Warning: toxe, toxp and dtox all given and toxe != toxp + dtox; dtox ignored.
Warning: toxe, toxp and dtox all given and toxe != toxp + dtox; dtox ignored.
Early termination of direct N-R iteration.
Direct Newton iteration failed to find .op point.  (Use ".option noopiter" to skip.)
Starting Gmin stepping
Gmin = 10
Gmin = 1.07374
Gmin = 0.115292
Gmin = 0.0123794
Gmin = 0.00132923
Gmin = 0.000142725
Gmin = 1.5325e-05
Gmin = 1.6455e-06
Gmin = 1.76685e-07
Gmin = 1.89714e-08
Gmin = 2.03704e-09
Gmin = 2.18725e-10
Gmin = 2.34854e-11
Gmin = 2.52173e-12
Gmin = 2.70769e-13
Gmin = 0
Gmin stepping succeeded in finding the operating point.


Date: Mon Feb 26 17:12:15 2024
Total elapsed time: 7.547 seconds.

tnom = 27
temp = 27
method = modified trap
totiter = 61510
traniter = 61056
tranpoints = 18536
accept = 14350
rejected = 4186
matrix size = 774
fillins = 412
solver = Normal
Avg thread counts: 3.0/4.0/3.0/1.0
Matrix Compiler1: 151.23 KB object code size  36.5/15.2/[11.3]
Matrix Compiler2: 103.89 KB object code size  14.6/10.6/[10.5]

