Circuit: * C:\users\salieri\Code\ifmo\sem6\cdesign\lab1\nor_test.asc

WARNING: Node X1:N001 is floating.
WARNING: Node X1:N003 is floating.
WARNING: Node X1:N004 is floating.
WARNING: Node X1:N005 is floating.

WARNING: Less than two connections to node x1:n001.  This node is used by m:x1:1.
WARNING: Less than two connections to node x1:n003.  This node is used by m:x1:2.
WARNING: Less than two connections to node x1:n004.  This node is used by m:x1:3.
WARNING: Less than two connections to node x1:n005.  This node is used by m:x1:4.
Warning: toxe, toxp and dtox all given and toxe != toxp + dtox; dtox ignored.
Warning: toxe, toxp and dtox all given and toxe != toxp + dtox; dtox ignored.
Direct Newton iteration for .op point succeeded.

Date: Mon Feb 26 17:19:32 2024
Total elapsed time: 0.807 seconds.

tnom = 27
temp = 27
method = modified trap
totiter = 64475
traniter = 64462
tranpoints = 32200
accept = 32179
rejected = 21
matrix size = 28
fillins = 18
solver = Normal
Avg thread counts: 1.0/1.0/1.0/1.0
Matrix Compiler1: 3.93 KB object code size  1.1/0.4/[0.4]
Matrix Compiler2: 3.34 KB object code size  0.3/0.3/[0.3]

